{ Standard.eqn

-------------------------------------------------------------------------------
DESCRIPTION
-------------------------------------------------------------------------------

GEOS-Chem KPP standard chemistry file containing species and equations for
the NOx-Ox-HC-Aer-Br mechanism with the Universal tropospheric-stratospheric
Chemistry eXtension (UCX). This mechanism applied from the surface to the
stratopause.

===============================================================================
FILE HISTORY
===============================================================================

v11-01g (Sep 2016)
----------------------

 (1) Initial version for FlexChem (MSL,MJE,MPS,EWL)

v11-02a (Mar 2017)
----------------------

 (1) Update rate constants based on JPL 15-10 (MJE,BHH)
     - See wiki.geos-chem.org/Updates_in_JPL_Publication_15-10
 (2) Fix ALK4 lumping issue in R4O2 + NO reaction (BHH)
 (3) PAN chemistry updates (EVF)
     - Added several new NMVOCs. The extended mechanism includes ethanol,
       benzene, toluene and ethylbenzene (lumped), xylenes and trimethyl
       benzenes (lumped), and monoterpenes (lumped).
     - Treatment of monoterpene oxidation is adopted from theRACM2 chemical
       mechanism (Goliff et al., 2013), lumping terpenes with one double bond
       (alpha-pinene, beta-pinene, sabinene, delta-3-carene) into one proxy.

v11-02c (Jul 2017)
----------------------

 (1) Add isoprene SOA updates from Marais2016 (EAM,MPS)
 (2) Update isoprene and monoterpene chemistry (KRT,JAF,CCM,EAM,KHB,RHS)
      - Based on Travis2016, Fisher2016, ChanMiller2017, Marais2016
      - Add Bates2014 epoxide scheme
      - Update isoprene nitrate chemistry following Lee2014
      - Add Muller2014 fast photolysis of carbonyl nitrates
      - Add HNO2 chemistry from Lee2014 
      - Updated product yields and rx rate for RIO2+RIO2 (Xie2013)
 (3) Add fixes for carbon-creating reactions (SAS,BHH,MJE)

===============================================================================
DEVELOPERS (alphabetical order; add your name!)
===============================================================================

BHH : Barron Henderson;        barronh@gmail.com
CCM : Christopher Chan Miller; cmiller@fas.harvard.edu
DBM : Dylan Millet             dbm@umn.edu
EAM : Eloise Marais;           e.a.marais@bham.ac.uk
ECB : Ellie Browne             eleanor.browne@colorado.edu
EVF : Emily Fischer;           evf@rams.colostate.edu
EWL : Lizzie Lundgren;         elundgren@seas.harvard.edu
FP  : Fabien Paulot;           fabien.paulot@noaa.gov
HOTP: Havala Pye;              pye.havala@epa.gov
JAF : Jenny Fisher;            jennyf@uow.edu.au
JMAO: Jingqiu Mao;             jmao2@alaska.edu
JPP : Justin Parrella;         justin.parrella@gmail.com
KHB : Kelvin Bates;            kelvin@caltech.edu
KRT : Katie Travis;            ktravis@fas.harvard.edu
MJE : Mat Evans;               mat.evans@york.ac.uk
MPS : Melissa Sulprizio;       mpayer@seas.harvard.edu
MSL : Mike Long;               mlong@seas.harvard.edu
RHS : Rebecca Schwantes;       rschwant@caltech.edu 
SAS : Sarah Safieddine;        sarahsaf@mit.edu
SDE : Sebastian Eastham;       seastham@seas.harvard.edu
TS  : Tomas Sherwen;           ts551@york.ac.uk

===============================================================================
REFERENCES (alphabetical order)
===============================================================================
* Atkinson2003: Atkinson and Arey, Chem. Rev., doi:10.1021/cr0206420, 2003.
* Bates2014:    Bates et al., J. Phys. Chem A, 118, doi:10.1021/jp4107958, 2014.
* Browne2011:   Browne et al., Atmos. Chem. Phys., doi:10.5194/acp-11-4209-2011, 2011.
* Browne2014:   Browne et al., Atmos. Chem. Phys., doi:10.5194/acp-14-1225-2014, 2014.
* Crounse2012:  Crounse et al., J. Phys. Chem. A, doi:10.1021/jp211560u, 2012.
* Eastham2014:  Eastham et al., Atmos. Env., doi:10.1016/j.atmosenv.2014.02.001, 2014.
* Fischer2014:  Fischer et al., Atmos. Chem. Phys., doi:10.5194/acp-14-2679-2014, 2014.
* Fisher2016:   Fisher et al., Atmos. Chem. Phys., doi:10.5194/acp-16-5969-2016, 2016.
* Fry2014:      Fry et al. Environ. Sci. Technol., doi:10.1021/es502204x, 2014.
* Gill2002:     Gill and Hites, J. Phys. Chem. A, doi:10.1021/jp013532, 2002.
* Goliff2013:   Goliff et al., Atmos. Environ., doi:10.1016/j.atmosenv.2012.11.038, 2013.
* Jacobs2014:   Jacobs et al., Atmos. Chem. Phys., doi:10.5194/acp-14-8933-2014, 2014.
* Jenkin2015:   Jenkin et al., Atmos. Chem. Phys., doi:10.5194/acp-15-11433-2015, 2015.
* JPL 10-6:     JPL Publication 10-6, https://jpldataeval.jpl.nasa.gov/previous_evaluations.html, 2011.
* JPL 15-10:    JPL Publication 15-10, https://jpldataeval.jpl.nasa.gov, 2015.
* Lee2014:      Lee et al., J. Phys. Chem. A, doi:10.1021/jp4107603, 2014.
* Marais2016:   Marais et al., Atmos. Chem. Phys, doi:10.5194/acp-16-1603-2016, 2016.
* Miller2017:   Miller et al., Atmos. Chem. Phys. Discuss., doi:10.5194/acp-2016-1042, 2017.
* Millet2015:   Millet et al., Atmos. Chem. Phys., doi:10.5194/acp-15-6283-2015, 2015.
* Muller2014:   Muller et al., Atmos. Chem. Phys., doi:10.5194/acp-14-2497-2014, 2014.
* Parrella2012: Parrella et al. Atmos. Chem. Phys, doi:10.5194/acp-12-6723-2012, 2012.
* Paulot2009:   Paulot et al., Atmos. Chem. Phys., doi:10.5194/acp-9-1479-2009, 2009a and
                Paulot et al., Science, doi:10.1126/science.1172910, 2009b.
* Peeters2010:  Peeters and Muller, Phys. Chem. Chem. Phys., doi:10.1039/C0CP00811G, 2010.
* Peeters2014:  Peeters et al., J. Phys. Chem. A, doi:10.1021/jp5033146, 2014.
* Pye2010:      Pye et al., Atmos. Chem. Phys., doi:10.5194/acp-10-11261-2010, 2010.
* Roberts1992:  Roberts and Bertman, Int. J. Chem. Kinet., doi:10.1002/kin.550240307, 1992.
* Sherwen2017:  Sherwen et al., Atmos. Chem. Phys., doi:10.5194/acp-16-12239-2016, 2017.
* StClair2016:  St. Clair et al., J. Phys. Chem. A, doi:10.1021/acs.jpca.5b065322016, 2016.
* Travis2016:   Travis et al., Atmos. Chem. Phys., doi:10.5194/acp-16-13561-2016, 2016.
* Wolfe2012:    Wolfe et al., Phys. Chem. Chem. Phys., doi: 10.1039/C2CP40388A, 2012.
* Xie2013:      Xie et al., Atmos. Chem. Phys., doi:10.5194/acp-13-8439-2013, 2013.

===============================================================================
NOTES
===============================================================================

Comment format is
 Species   - Molecular formula; full name
 Equations - Date modified; Reference; Developer initials
}

#include atoms

#DEFVAR

A3O2       = IGNORE; {CH3CH2CH2OO; Primary RO2 from C3H8}
ACET       = IGNORE; {CH3C(O)CH3; Acetone}
ACTA       = IGNORE; {CH3C(O)OH; Acetic acid}
ALD2       = IGNORE; {CH3CHO; Acetaldehyde}
ALK4       = IGNORE; {>= C4 alkanes}
ATO2       = IGNORE; {CH3C(O)CH2O2; RO2 from acetone}
ATOOH      = IGNORE; {CH3C(O)CH2OOH; ATO2 peroxide}
B3O2       = IGNORE; {CH3CH(OO)CH3; Secondary RO2 from C3H8}
BENZ       = IGNORE; {C6H6; Benzene}
Br         = IGNORE; {Br; Atomic bromine}
Br2        = IGNORE; {Br2; Molecular bromine}
BrCl       = IGNORE; {BrCl; Bromine chloride}
BrO        = IGNORE; {BrO; Bromine monoxide}
BRO2       = IGNORE; {C6H5O2 ; Peroxy radical from BENZ oxidation}
BrNO2      = IGNORE; {BrNO2; Nitryl bromide}
BrNO3      = IGNORE; {BrNO3; Bromine nitrate}
C2H4       = IGNORE; {C2H4; Ethylene}
C2H6       = IGNORE; {C2H6; Ethane}
C3H8       = IGNORE; {C3H8; Propane}
CCl4       = IGNORE; {CCl4; Carbon tetrachloride}
CFC11      = IGNORE; {CCl3F ; CFC-11, R-11, Freon 11}
CFC12      = IGNORE; {CCl2F2; CFC-12, R-12, Freon 12}
CFC113     = IGNORE; {C2Cl3F3; CFC-113, Freon 113}
CFC114     = IGNORE; {C2Cl2F4; CFC-114, Freon 114}
CFC115     = IGNORE; {C2ClF5; CFC-115, Freon 115}
CH2Br2     = IGNORE; {CH3Br2; Dibromomethane}
CH2O       = IGNORE; {CH2O; Formaldehyde}
CH2OO      = IGNORE; {CH2OO; Criegee intermediate}
CH3Br      = IGNORE; {CH3Br; Methyl bromide}
CH3CHOO    = IGNORE; {CH3CHOO; Criegee intermediate}
CH3CCl3    = IGNORE; {CH3CCl3; Methyl chloroform}
CH3Cl      = IGNORE; {CH3Cl; Chloromethane}
CH4        = IGNORE; {CH4; Methane}
CHBr3      = IGNORE; {CHBr3; Tribromethane}
Cl         = IGNORE; {Cl; Atomic chlorine}
Cl2        = IGNORE; {Cl2; Molecular chlorine}
Cl2O2      = IGNORE; {Cl2O2; Dichlorine dioxide}
ClNO2      = IGNORE; {ClNO2; Nitryl chloride}
ClNO3      = IGNORE; {ClONO2; Chlorine nitrate}
ClO        = IGNORE; {ClO; Chlorine monoxide}
ClOO       = IGNORE; {ClOO; Chlorine dioxide}
CO         = IGNORE; {CO; Carbon monoxide}
CO2        = IGNORE; {CO2; Carbon dioxide}
DHDN       = IGNORE; {C5H10O8N2; C5 dihydroxydinitrate}
DHDC       = IGNORE; {C5H8O6; Dihydroxyperoxide dicarbonyl}
DHMOB      = IGNORE; {HOCH2C(CH3)(OH)C(=O)CHO; See Paulot et al., ACP, 2009}
DHPCARP    = IGNORE; {C5H9O7; Dihydroxy a-formyl peroxy radical}
DIBOO      = IGNORE; {Dibble peroxy radical}
DMS        = IGNORE; {(CH3)2S; Dimethylsulfide}
EOH        = IGNORE; {C2H5OH; Ethanol}
ETHLN      = IGNORE; {CHOCH2ONO2; Ethanal nitrate}
ETO2       = IGNORE; {CH3CH2OO; Ethylperoxy radical}
ETP        = IGNORE; {CH3CH2OOH; Ethylhydroperoxide}
GAOO       = IGNORE; {Criegee intermediate}
GLYC       = IGNORE; {HOCH2CHO; Glycoaldehyde}
GLYX       = IGNORE; {CHOCHO; Glyoxal}
H          = IGNORE; {H; Atomic hydrogen}
H1211      = IGNORE; {CBrClF2; H-1211}
H1301      = IGNORE; {CBrF3; H-1301}
H2402      = IGNORE; {C2Br2F4; H-2402}
H2O        = IGNORE; {H2O; Water vapor}
H2O2       = IGNORE; {H2O2; Hydrogen peroxide}
HAC        = IGNORE; {HOCH2C(O)CH3; Hydroxyacetone}
HBr        = IGNORE; {HBr; Hypobromic acid}
HC187      = IGNORE; {Epoxide oxidation product m/z 187-189}
HC5        = IGNORE; {HOCH2CH=C(CH3)CHO; Hydroxycarbonyl with 5C}
HC5OO      = IGNORE; {Peroxy radical from HC5}
HCFC123    = IGNORE; {C2HCl2F3; HCFC-123, R-123, Freon 123}
HCFC141b   = IGNORE; {C(CH3)Cl2F; HCFC-141b, R-141b, Freon 141b}
HCFC142b   = IGNORE; {C(CH3)ClF2; HCFC-142b, R-142b, Freon 142b}
HCFC22     = IGNORE; {CHClF2 ; HCFC-22, R-22, Freon 22}
HCl        = IGNORE; {HCl; Hydrochloric acid}
HCOOH      = IGNORE; {HCOOH; Formic acid}
HNO2       = IGNORE; {HONO; Nitrous acid}
HNO3       = IGNORE; {HNO3; Nitric acid}
HNO4       = IGNORE; {HNO4; Pernitric acid}
HO2        = IGNORE; {HO2; Hydroperoxyl radical}
HOBr       = IGNORE; {HOBr; Hypobromous acid}
HOCl       = IGNORE; {HOCl; Hypochlorous acid}
HONIT      = IGNORE; {2nd gen monoterpene organic nitrate}
HPALD      = IGNORE; {C5H8O3; Hydroperoxyaldehydes}
HPC52O2    = IGNORE; {OOCC(C(C=O)O)(O[O])C}
IAP        = IGNORE; {HOCH2C(CH3)(OOH)CH(OH)CHO; Peroxide from IAO2}
IEPOXA     = IGNORE; {C5H10O3; trans-Beta isoprene epoxydiol}
IEPOXB     = IGNORE; {C5H10O3; cis-Beta isoprene epoxydiol}
IEPOXD     = IGNORE; {C5H10O3; Delta isoprene epoxydiol}
IEPOXOO    = IGNORE; {RO2 from IEPOX}
IMAE       = IGNORE; {C4H6O3; C4 epoxide from oxidation of NPMN}
IMAO3      = IGNORE; {CH2=C(CH3)C(O)OO; Isoprene peroxyacyl from MVK and MACR}
INDIOL     = IGNORE; {Generic aerosol phase organonitrate hydrolysis product}
INO2       = IGNORE; {O2NOCH2C(OO)(CH3)CH=CH2; RP2 from IEPOX}
INPN       = IGNORE; {O2NOCH2C(OOH)(CH3)CH=CH2; Peroxide from INO2}
IONITA     = IGNORE; {Aerosol-phase organic nitrate from isoprene precursors}
IPMN       = IGNORE; {CH2=C(CH3)C(O)OONO2; Isoprene peroxymethacryloyl nitrate}
ISN1       = IGNORE; {C5H8NO4; Nighttime isoprene nitrate}
ISN1OA     = IGNORE; {C5H10O8N2; Aerosol-phase second generation hydroxynitrates formed from ISOP+NO3 pathway}
ISN1OG     = IGNORE; {C5H10O8N2; Gas-phase second generation hydroxynitrates formed from ISOP+NO3 pathway}
ISNOOA     = IGNORE; {Peroxy radical from ISN1}
ISNOOB     = IGNORE; {Peroxy radical from ISN1}
ISNOHOO    = IGNORE; {Peroxy radical from ISN1}
ISNP       = IGNORE; {HOCH2C(OOH)(CH3)CH(ONO2)CH2OH; Isoprene nitrate}
ISOP       = IGNORE; {CH2=C(CH3)CH=CH2; Isoprene}
ISOPNB     = IGNORE; {C5H9NO4; Isoprene nitrate Beta}
ISOPNBO2   = IGNORE; {Product of ISOPNB+OH}
ISOPND     = IGNORE; {C5H9NO4; Isoprene nitrate Delta}
ISOPNDO2   = IGNORE; {Product of ISOPND+OH}
KO2        = IGNORE; {RO2 from >3 ketones}
LBRO2H     = IGNORE; {Dummy spc to track oxidation of BRO2 by HO2}
LBRO2N     = IGNORE; {Dummy spc to track oxidation of BRO2 by NO}
LIMO       = IGNORE; {C10H16; Limonene}
LIMO2      = IGNORE; {RO2 from LIMO}
LISOPOH    = IGNORE; {Dummy spc to track loss of ISOP from rxn with OH}
LISOPNO3   = IGNORE; {Dummy spc to track loss of ISOP from rxn with NO3}
LTRO2H     = IGNORE; {Dummy spc to track oxidation of TRO2 by HO2}
LTRO2N     = IGNORE; {Dummy spc to track oxidation of TRO2 by NO}
LVOC       = IGNORE; {C5H14O5; Gas-phase low-volatility non-IEPOX product of ISOPOOH (RIP) oxidation}
LVOCOA     = IGNORE; {C5H14O5; Aerosol-phase low-volatility non-IEPOX product of ISOPOOH (RIP) oxidation}
LXRO2H     = IGNORE; {Dummy spc to track oxidation of XRO2 by HO2}
LXRO2N     = IGNORE; {Dummy spc to track oxidation of XRO2 by NO}
MACR       = IGNORE; {CH2=C(CH3)CHO; Methacrolein}
MACRN      = IGNORE; {HOCH2C(ONO2)(CH3)CHO; Nitrate from MACR}
MACRNO2    = IGNORE; {Product of MACRN+OH}
MACROO     = IGNORE; {Criegee intermediate}
MAN2       = IGNORE; {HOCH2C(ONO2)(CH3)CHO; RO2 from MACR+NO3}
MAOP       = IGNORE; {CH2=C(CH3)C(O)OOH; Peroxide from NMAO3}
MAOPO2     = IGNORE; {CH2OH-CHOO*CH3C(O)OOH; Peroxy radical from MAOP}
MAP        = IGNORE; {CH3C(O)OOH; Peroxyacetic acid}
MBO        = IGNORE; {Criegee intermediate}
MBOOO      = IGNORE; {Criegee intermediate}
MCO3       = IGNORE; {CH3C(O)O; Peroxyacetyl radical}
MEK        = IGNORE; {RC(O)R; Methyl ethyl ketone}
MGLOO      = IGNORE; {Criegee intermediate}
MGLY       = IGNORE; {CH3COCHO; Methylglyoxal}
MGLYOO     = IGNORE; {Criegee intermediate}
MOBA       = IGNORE; {HOC(=O)C(CH3)=CHCHO; 5C acid from isoprene}
MOBAOO     = IGNORE; {RO2 from MOBA}
MO2        = IGNORE; {CH3O2; Methylperoxy radical}
MONITA     = IGNORE; {Aerosol-phase organic nitrate from monoterpene precursors}
MONITS     = IGNORE; {Saturated 1st gen monoterpene organic nitrate}
MONITU     = IGNORE; {Unsaturated 1st gen monoterpene organic nitrate}
MONX       = IGNORE; {Total monoterpenes}
MP         = IGNORE; {CH3OOH; Methylhydroperoxide}
MPN        = IGNORE; {CH3O2NO2; Methyl peroxy nitrate}
MRO2       = IGNORE; {HOCH2C(OO)(CH3)CHO; RO2 from MACR+OH}
MRP        = IGNORE; {HOCH2C(OOH)(CH3)CHO; Peroxide from MRO2}
MSA        = IGNORE; {CH4SO3; Methanesulfonic acid}
MTPA       = IGNORE; {Lumped monoterpenes: a-pinene, b-pinene, sabinene, carene}
MVK        = IGNORE; {CH2=CHC(=O)CH3; Methyl vinyl ketone}
MVKN       = IGNORE; {HOCH2CH(ONO2)C(=O)CH3; Nitrate from MVK}
MVKOO      = IGNORE; {Criegee intermediate}
N          = IGNORE; {N; Atomic nitrogen}
N2O        = IGNORE; {N2O; Nitrous oxide}
N2O5       = IGNORE; {N2O5; Dinitrogen pentoxide}
NMAO3      = IGNORE; {CH2=C(CH3)C(O)OO; Non-isoprene peroxyacyl from MVK and MACR}
NO         = IGNORE; {NO; Nitric oxide}
NO2        = IGNORE; {NO2; Nitrogen dioxide}
NO3        = IGNORE; {NO3; Nitrate radical}
NPMN       = IGNORE; {CH2=C(CH3)C(O)OONO2; Non-isoprene peroxymethacryloyl nitrate}
O          = IGNORE; {O(3P); Ground state atomic oxygen}
O1D        = IGNORE; {O(1D); Excited atomic oxygen}
O3         = IGNORE; {O3; Ozone}
OClO       = IGNORE; {OClO; Chlorine dioxide}
OCS        = IGNORE; {COS; Carbonyl sulfide}
OH         = IGNORE; {OH; Hydroxyl radical}
OLND       = IGNORE; {Monoterpene-derived NO3-alkene adduct}
OLNN       = IGNORE; {Monoterpene-derived NO3 adduct}
ONIT       = IGNORE; {Organic nitrate}
PAN        = IGNORE; {CH3C(O)OONO2; Peroxyacetylnitrate}
PIO2       = IGNORE; {RO2 from MTPA}
PIP        = IGNORE; {Peroxides from MTPA}
PMNN       = IGNORE; {Product of PMNO2+NO}
PMNO2      = IGNORE; {Product of NPMN+OH}
PO2        = IGNORE; {HOCH2CH(OO)CH3; RO2 from isoprene}
PP         = IGNORE; {HOCH2CH(OOH)CH3; Peroxide from PO2}
PPN        = IGNORE; {CH3CH2C(O)OONO2; Peroxypropionylnitrate}
PRN1       = IGNORE; {O2NOCH2CH(OO)CH3; RO2 from propene + NO3}
PRPE       = IGNORE; {C3H6; >= C3 alkenes}
PRPN       = IGNORE; {O2NOCH2CH(OOH)CH3; Peroxide from PRN1}
PROPNN     = IGNORE; {CH3C(=O)CH2ONO2; Propanone nitrate}
PYAC       = IGNORE; {CH3COCOOH; Pyruvic acid}
R4N1       = IGNORE; {RO2 from R4N2}
R4N2       = IGNORE; {RO2NO; >= C4 alkylnitrates}
R4O2       = IGNORE; {RO2 from ALK4}
R4P        = IGNORE; {CH3CH2CH2CH2OOH; Peroxide from R4O2}
RA3P       = IGNORE; {CH3CH2CH2OOH; Peroxide from A3O2}
RB3P       = IGNORE; {CH3CH(OOH)CH3; Peroxide from B3O2}
RCHO       = IGNORE; {CH3CH2CHO; >= C3 aldehydes}
RCO3       = IGNORE; {CH3CH2C(O)OO; Peroxypropionyl radical}
RIO2       = IGNORE; {HOCH2C(OO)(CH3)CH=CH2; RO2 from isoprene, aka ISOPO2}
RIPA       = IGNORE; {HOCH2C(OOH)(CH3)CH=CH2; 1,2-ISOPOOH}
RIPB       = IGNORE; {HOCH2C(OOH)(CH3)CH=CH2; 4,3-ISOPOOH}
RIPD       = IGNORE; {HOCH2C(OOH)(CH3)CH=CH2; d(1,4 and 4,1)-ISOPOOH}
ROH        = IGNORE; {C3H7OH; > C2 alcohols}
RP         = IGNORE; {CH3CH2C(O)OOH; Peroxide from RCO3}
SO2        = IGNORE; {SO2; Sulfur dioxide}
SO4        = IGNORE; {SO4; Sulfate}
SOAGX      = IGNORE; {CHOCHO; Aerosol-phase glyoxal}
SOAIE      = IGNORE; {C5H10O3; Aerosol-phase IEPOX}
SOAME      = IGNORE; {C4H6O3; Aerosol-phase IMAE}
SOAMG      = IGNORE; {CH3COCHO; Aerosol-phase methylglyoxal}
TOLU       = IGNORE; {C7H8; Toluene}
TRO2       = IGNORE; {Peroxy radical from TOLU oxidation}
VRO2       = IGNORE; {HOCH2CH(OO)C(O)CH3; RO2 from MVK+OH}
VRP        = IGNORE; {HOCH2CH(OOH)C(O)CH3; Peroxide from VRO2}
XYLE       = IGNORE; {C8H10; Xylene}
XRO2       = IGNORE; {Peroxy radical from XYLE oxidation}

#DEFFIX

H2         = IGNORE; {H2; Molecular hydrogen}
MNO3       = IGNORE; {CH3ONO2; Methylnitrate}
MOH        = IGNORE; {CH3OH; Methanol}
N2         = IGNORE; {N2; Molecular nitrogen}
NH2        = IGNORE; {NH2; Ammonia radical}
NH3        = IGNORE; {NH3; Ammonia}
O2         = IGNORE; {O2; Molecular oxygen}
RCOOH      = IGNORE; {C2H5C(O)OH; > C2 organic acids}

#EQUATIONS

O3 + NO = NO2 + O2 :                        GCARR(3.00E-12, 0.0E+00, -1500.0);
O3 + OH = HO2 + O2 :                        GCARR(1.70E-12, 0.0E+00, -940.0);
O3 + HO2 = OH + O2 + O2 :                   GCARR(1.00E-14, 0.0E+00, -490.0);
O3 + NO2 = O2 + NO3 :                       GCARR(1.20E-13, 0.0E+00, -2450.0);
O3 + MO2 = CH2O + HO2 + O2 :                GCARR(2.90E-16, 0.0E+00, -1000.0);  {2014/02/03; Eastham2014; SDE}
OH + OH = H2O + O :                         GCARR(1.80E-12, 0.0E+00, 0.0);      {2014/02/03; Eastham2014; SDE}
